
Note: Compatibility modes selected: ps lt a


Circuit: ** sch_path: c:/users/seiji/work/op8_18/xschem/op8_18_tb_direct_ac.sch

binary raw file "C:/Users/seiji/work/Op8_18/Xschem/simulation/op8_18_tb_direct_ac.raw"
Doing analysis at TEMP = 27.000000 and TNOM = 27.000000

Using SPARSE 1.3 as Direct Linear Solver

Checking parameters for BSIM 3.3 model nch
Warning: Pd = 0 is less than W.
Warning: Ps = 0 is less than W.

Checking parameters for BSIM 3.3 model nch
Warning: Pd = 0 is less than W.
Warning: Ps = 0 is less than W.

Checking parameters for BSIM 3.3 model nch
Warning: Pd = 0 is less than W.
Warning: Ps = 0 is less than W.

Checking parameters for BSIM 3.3 model nch
Warning: Pd = 0 is less than W.
Warning: Ps = 0 is less than W.

Checking parameters for BSIM 3.3 model nch
Warning: Pd = 0 is less than W.
Warning: Ps = 0 is less than W.

Checking parameters for BSIM 3.3 model pch
Warning: Pd = 0 is less than W.
Warning: Ps = 0 is less than W.

Checking parameters for BSIM 3.3 model pch
Warning: Pd = 0 is less than W.
Warning: Ps = 0 is less than W.

Checking parameters for BSIM 3.3 model pch
Warning: Pd = 0 is less than W.
Warning: Ps = 0 is less than W.

Checking parameters for BSIM 3.3 model pch
Warning: Pd = 0 is less than W.
Warning: Ps = 0 is less than W.

Checking parameters for BSIM 3.3 model pch
Warning: Pd = 0 is less than W.
Warning: Ps = 0 is less than W.
Note: Starting dynamic gmin stepping
Note: Dynamic gmin stepping completed
No. of Data Columns : 28  

No. of Data Rows : 71

Total analysis time (seconds) = 0.025

Total elapsed time (seconds) = 0.103 

Total DRAM available = 15591.676 MB.
DRAM currently available = 3721.457 MB.
Maximum ngspice program size =   19.082 MB.
Current ngspice program size =   19.082 MB.

